
     RDKit          3D

 29 33  0  0  0  0  0  0  0  0999 V2000
   -1.1760   -0.8051    0.0800 C   0  0  0  0  0  0  0  0  0  0  0  0
    0.6532    0.4266    0.0473 N   0  0  0  0  0  0  0  0  0  0  0  0
   -2.1438   -3.0451   -1.3633 O   0  0  0  0  0  0  0  0  0  0  0  0
   -0.5021    0.1873    0.5448 C   0  0  0  0  0  0  0  0  0  0  0  0
   -0.6984   -1.5583   -0.8664 N   0  0  0  0  0  0  0  0  0  0  0  0
    1.2221   -0.2326   -0.9419 C   0  0  0  0  0  0  0  0  0  0  0  0
    0.8780   -2.1098   -2.2976 N   0  0  0  0  0  0  0  0  0  0  0  0
    0.5582   -1.2812   -1.4042 C   0  0  0  0  0  0  0  0  0  0  0  0
   -1.0625   -2.5830   -1.5363 C   0  0  0  0  0  0  0  0  0  0  0  0
   -0.1391   -2.9269   -2.4106 C   0  0  0  0  0  0  0  0  0  0  0  0
   -0.2147   -4.0034   -3.2896 C   0  0  0  0  0  0  0  0  0  0  0  0
   -0.9687   -3.8308   -4.4168 C   0  0  0  0  0  0  0  0  0  0  0  0
   -0.4577   -3.9018   -5.4863 C   0  0  0  0  0  0  0  0  0  0  0  0
   -1.1910   -3.6952   -6.5725 C   0  0  0  0  0  0  0  0  0  0  0  0
   -2.2685   -3.4252   -6.5874 C   0  0  0  0  0  0  0  0  0  0  0  0
   -2.8173   -3.3561   -5.4671 C   0  0  0  0  0  0  0  0  0  0  0  0
   -2.2147   -3.5422   -4.4055 C   0  0  0  0  0  0  0  0  0  0  0  0
    2.4504    0.0945   -1.4114 C   0  0  0  0  0  0  0  0  0  0  0  0
    2.7240    0.2521   -2.5997 C   0  0  0  0  0  0  0  0  0  0  0  0
    3.8487    0.6044   -2.9035 C   0  0  0  0  0  0  0  0  0  0  0  0
    4.8536    0.6858   -2.1053 C   0  0  0  0  0  0  0  0  0  0  0  0
    4.6119    0.4973   -1.0450 C   0  0  0  0  0  0  0  0  0  0  0  0
    3.3786    0.2644   -0.6419 C   0  0  0  0  0  0  0  0  0  0  0  0
   -1.1055    0.9868    1.5433 C   0  0  0  0  0  0  0  0  0  0  0  0
   -1.4287    2.1786    1.3689 C   0  0  0  0  0  0  0  0  0  0  0  0
   -1.9342    2.8877    2.2293 C   0  0  0  0  0  0  0  0  0  0  0  0
   -2.0938    2.3573    3.2556 C   0  0  0  0  0  0  0  0  0  0  0  0
   -1.7415    1.1591    3.4915 C   0  0  0  0  0  0  0  0  0  0  0  0
   -1.2521    0.5139    2.6418 C   0  0  0  0  0  0  0  0  0  0  0  0
  1  4  1  0
  1  5  1  0
  2  4  1  0
  2  6  1  0
  3  9  2  0
  4 24  1  0
  5  8  1  0
  5  9  1  0
  6  8  1  0
  6 18  1  0
  7  8  1  0
  7 10  1  0
  9 10  1  0
 10 11  1  0
 11 12  1  0
 12 13  2  0
 12 17  1  0
 13 14  1  0
 14 15  2  0
 15 16  1  0
 16 17  2  0
 18 19  2  0
 18 23  1  0
 19 20  1  0
 20 21  2  0
 21 22  1  0
 22 23  2  0
 24 25  2  0
 24 29  1  0
 25 26  1  0
 26 27  2  0
 27 28  1  0
 28 29  2  0
M  END
$$$$
