
     RDKit          3D

 29 33  0  0  0  0  0  0  0  0999 V2000
   -1.1999   -0.7958    0.1001 C   0  0  0  0  0  0  0  0  0  0  0  0
    0.6259    0.4292    0.0601 N   0  0  0  0  0  0  0  0  0  0  0  0
   -2.1660   -3.0418   -1.3544 O   0  0  0  0  0  0  0  0  0  0  0  0
   -0.5320    0.1916    0.5705 C   0  0  0  0  0  0  0  0  0  0  0  0
   -0.7116   -1.5555   -0.8785 N   0  0  0  0  0  0  0  0  0  0  0  0
    1.2112   -0.2325   -0.9448 C   0  0  0  0  0  0  0  0  0  0  0  0
    0.8550   -2.1032   -2.2878 N   0  0  0  0  0  0  0  0  0  0  0  0
    0.5501   -1.2783   -1.4066 C   0  0  0  0  0  0  0  0  0  0  0  0
   -1.0634   -2.5751   -1.5537 C   0  0  0  0  0  0  0  0  0  0  0  0
   -0.1406   -2.9222   -2.4206 C   0  0  0  0  0  0  0  0  0  0  0  0
   -0.2244   -4.0003   -3.2948 C   0  0  0  0  0  0  0  0  0  0  0  0
   -0.9910   -3.8236   -4.4147 C   0  0  0  0  0  0  0  0  0  0  0  0
   -0.4637   -3.9029   -5.5017 C   0  0  0  0  0  0  0  0  0  0  0  0
   -1.1838   -3.7034   -6.5921 C   0  0  0  0  0  0  0  0  0  0  0  0
   -2.2658   -3.4301   -6.6000 C   0  0  0  0  0  0  0  0  0  0  0  0
   -2.8328   -3.3600   -5.4753 C   0  0  0  0  0  0  0  0  0  0  0  0
   -2.2490   -3.5339   -4.3976 C   0  0  0  0  0  0  0  0  0  0  0  0
    2.4464    0.0954   -1.4289 C   0  0  0  0  0  0  0  0  0  0  0  0
    2.7395    0.2398   -2.6270 C   0  0  0  0  0  0  0  0  0  0  0  0
    3.8393    0.5792   -2.9316 C   0  0  0  0  0  0  0  0  0  0  0  0
    4.8358    0.6761   -2.1216 C   0  0  0  0  0  0  0  0  0  0  0  0
    4.6028    0.4973   -1.0392 C   0  0  0  0  0  0  0  0  0  0  0  0
    3.3577    0.2696   -0.6339 C   0  0  0  0  0  0  0  0  0  0  0  0
   -1.1258    0.9798    1.5503 C   0  0  0  0  0  0  0  0  0  0  0  0
   -1.4389    2.1727    1.3770 C   0  0  0  0  0  0  0  0  0  0  0  0
   -1.9557    2.8853    2.2362 C   0  0  0  0  0  0  0  0  0  0  0  0
   -2.1132    2.3598    3.2650 C   0  0  0  0  0  0  0  0  0  0  0  0
   -1.7681    1.1492    3.4903 C   0  0  0  0  0  0  0  0  0  0  0  0
   -1.2681    0.5067    2.6475 C   0  0  0  0  0  0  0  0  0  0  0  0
  1  4  1  0
  1  5  1  0
  2  4  1  0
  2  6  1  0
  3  9  2  0
  4 24  1  0
  5  8  1  0
  5  9  1  0
  6  8  1  0
  6 18  1  0
  7  8  1  0
  7 10  1  0
  9 10  1  0
 10 11  1  0
 11 12  1  0
 12 13  2  0
 12 17  1  0
 13 14  1  0
 14 15  2  0
 15 16  1  0
 16 17  2  0
 18 19  2  0
 18 23  1  0
 19 20  1  0
 20 21  2  0
 21 22  1  0
 22 23  2  0
 24 25  2  0
 24 29  1  0
 25 26  1  0
 26 27  2  0
 27 28  1  0
 28 29  2  0
M  END
$$$$
