
     RDKit          3D

 24 27  0  0  0  0  0  0  0  0999 V2000
    1.6048    1.9203   31.9604 C   0  0  0  0  0  0  0  0  0  0  0  0
    2.4814    3.3601   30.8670 N   0  0  0  0  0  0  0  0  0  0  0  0
    0.1124   -1.1326   30.4419 O   0  0  0  0  0  0  0  0  0  0  0  0
    1.5702    1.4796   30.7861 C   0  0  0  0  0  0  0  0  0  0  0  0
    0.8927   -0.7408   32.0532 N   0  0  0  0  0  0  0  0  0  0  0  0
    1.3228    1.1446   33.0959 C   0  0  0  0  0  0  0  0  0  0  0  0
    3.2798    5.7123   37.2441 N   0  0  0  0  0  0  0  0  0  0  0  0
    2.1776    3.1124   31.9640 C   0  0  0  0  0  0  0  0  0  0  0  0
    2.0989    2.4327   30.1617 C   0  0  0  0  0  0  0  0  0  0  0  0
    1.1548    0.4510   30.2949 C   0  0  0  0  0  0  0  0  0  0  0  0
    1.4903   -0.2798   32.8132 C   0  0  0  0  0  0  0  0  0  0  0  0
    2.5961    3.9242   33.0400 C   0  0  0  0  0  0  0  0  0  0  0  0
    0.7499   -0.5073   30.9133 C   0  0  0  0  0  0  0  0  0  0  0  0
    2.0376    2.3430   29.0707 C   0  0  0  0  0  0  0  0  0  0  0  0
    1.1524    0.4064   29.1556 C   0  0  0  0  0  0  0  0  0  0  0  0
    1.5468    1.3475   28.4574 C   0  0  0  0  0  0  0  0  0  0  0  0
    3.7072    4.0851   33.5342 C   0  0  0  0  0  0  0  0  0  0  0  0
    1.8877    4.5003   33.5852 C   0  0  0  0  0  0  0  0  0  0  0  0
    3.3913    5.2702   35.0408 C   0  0  0  0  0  0  0  0  0  0  0  0
    4.2223    4.6679   34.5511 C   0  0  0  0  0  0  0  0  0  0  0  0
    2.1675    5.2741   34.6355 C   0  0  0  0  0  0  0  0  0  0  0  0
    3.7538    6.1030   36.0959 C   0  0  0  0  0  0  0  0  0  0  0  0
    4.2417    5.5511   38.2453 C   0  0  0  0  0  0  0  0  0  0  0  0
    1.4408    1.3344   27.1416 F   0  0  0  0  0  0  0  0  0  0  0  0
  1  4  1  0
  1  6  1  0
  1  8  1  0
  2  8  1  0
  2  9  1  0
  3 13  2  0
  4  9  1  0
  4 10  1  0
  5 11  1  0
  5 13  1  0
  6 11  1  0
  7 22  1  0
  7 23  1  0
  8 12  1  0
  9 14  1  0
 10 13  1  0
 10 15  1  0
 12 17  1  0
 12 18  1  0
 14 16  1  0
 15 16  1  0
 16 24  1  0
 17 20  1  0
 18 21  1  0
 19 20  1  0
 19 21  1  0
 19 22  1  0
M  END
$$$$
