
     RDKit          3D

 24 27  0  0  0  0  0  0  0  0999 V2000
    1.5833    1.9394   31.9744 C   0  0  0  0  0  0  0  0  0  0  0  0
    2.4680    3.3897   30.8801 N   0  0  0  0  0  0  0  0  0  0  0  0
    0.1286   -1.1254   30.4351 O   0  0  0  0  0  0  0  0  0  0  0  0
    1.5407    1.4817   30.7918 C   0  0  0  0  0  0  0  0  0  0  0  0
    0.8768   -0.7447   32.0563 N   0  0  0  0  0  0  0  0  0  0  0  0
    1.2698    1.1507   33.1323 C   0  0  0  0  0  0  0  0  0  0  0  0
    3.3030    5.6968   37.2415 N   0  0  0  0  0  0  0  0  0  0  0  0
    2.1576    3.1371   31.9875 C   0  0  0  0  0  0  0  0  0  0  0  0
    2.0677    2.4448   30.1698 C   0  0  0  0  0  0  0  0  0  0  0  0
    1.1458    0.4347   30.2879 C   0  0  0  0  0  0  0  0  0  0  0  0
    1.4346   -0.2915   32.8323 C   0  0  0  0  0  0  0  0  0  0  0  0
    2.5898    3.9443   33.0670 C   0  0  0  0  0  0  0  0  0  0  0  0
    0.7240   -0.5119   30.9298 C   0  0  0  0  0  0  0  0  0  0  0  0
    2.0336    2.3228   29.0680 C   0  0  0  0  0  0  0  0  0  0  0  0
    1.1864    0.3831   29.1372 C   0  0  0  0  0  0  0  0  0  0  0  0
    1.5655    1.3054   28.4449 C   0  0  0  0  0  0  0  0  0  0  0  0
    3.7199    4.1058   33.5526 C   0  0  0  0  0  0  0  0  0  0  0  0
    1.8996    4.5092   33.6004 C   0  0  0  0  0  0  0  0  0  0  0  0
    3.3961    5.2560   35.0393 C   0  0  0  0  0  0  0  0  0  0  0  0
    4.2266    4.6676   34.5614 C   0  0  0  0  0  0  0  0  0  0  0  0
    2.1791    5.2567   34.6348 C   0  0  0  0  0  0  0  0  0  0  0  0
    3.7444    6.1291   36.1520 C   0  0  0  0  0  0  0  0  0  0  0  0
    4.2473    5.5454   38.2419 C   0  0  0  0  0  0  0  0  0  0  0  0
    1.4882    1.2935   27.1427 F   0  0  0  0  0  0  0  0  0  0  0  0
  1  4  1  0
  1  6  1  0
  1  8  1  0
  2  8  1  0
  2  9  1  0
  3 13  2  0
  4  9  1  0
  4 10  1  0
  5 11  1  0
  5 13  1  0
  6 11  1  0
  7 22  1  0
  7 23  1  0
  8 12  1  0
  9 14  1  0
 10 13  1  0
 10 15  1  0
 12 17  1  0
 12 18  1  0
 14 16  1  0
 15 16  1  0
 16 24  1  0
 17 20  1  0
 18 21  1  0
 19 20  1  0
 19 21  1  0
 19 22  1  0
M  END
$$$$
