
     RDKit          3D

 24 27  0  0  0  0  0  0  0  0999 V2000
    1.6022    1.9187   31.9650 C   0  0  0  0  0  0  0  0  0  0  0  0
    2.4689    3.3476   30.8910 N   0  0  0  0  0  0  0  0  0  0  0  0
    0.1149   -1.1339   30.4365 O   0  0  0  0  0  0  0  0  0  0  0  0
    1.5446    1.4603   30.8078 C   0  0  0  0  0  0  0  0  0  0  0  0
    0.8906   -0.7369   32.0643 N   0  0  0  0  0  0  0  0  0  0  0  0
    1.2811    1.1339   33.1161 C   0  0  0  0  0  0  0  0  0  0  0  0
    3.2901    5.7078   37.2459 N   0  0  0  0  0  0  0  0  0  0  0  0
    2.1687    3.1122   31.9774 C   0  0  0  0  0  0  0  0  0  0  0  0
    2.0978    2.4179   30.1879 C   0  0  0  0  0  0  0  0  0  0  0  0
    1.1441    0.4426   30.3151 C   0  0  0  0  0  0  0  0  0  0  0  0
    1.4598   -0.2918   32.8125 C   0  0  0  0  0  0  0  0  0  0  0  0
    2.5836    3.9181   33.0472 C   0  0  0  0  0  0  0  0  0  0  0  0
    0.7425   -0.5046   30.9311 C   0  0  0  0  0  0  0  0  0  0  0  0
    2.0541    2.3272   29.0795 C   0  0  0  0  0  0  0  0  0  0  0  0
    1.1496    0.3966   29.1573 C   0  0  0  0  0  0  0  0  0  0  0  0
    1.5460    1.3282   28.4571 C   0  0  0  0  0  0  0  0  0  0  0  0
    3.6980    4.0912   33.5461 C   0  0  0  0  0  0  0  0  0  0  0  0
    1.8860    4.4968   33.5956 C   0  0  0  0  0  0  0  0  0  0  0  0
    3.3835    5.2655   35.0488 C   0  0  0  0  0  0  0  0  0  0  0  0
    4.2151    4.6768   34.5639 C   0  0  0  0  0  0  0  0  0  0  0  0
    2.1810    5.2564   34.6259 C   0  0  0  0  0  0  0  0  0  0  0  0
    3.7521    6.1053   36.1098 C   0  0  0  0  0  0  0  0  0  0  0  0
    4.2474    5.5475   38.2426 C   0  0  0  0  0  0  0  0  0  0  0  0
    1.4529    1.3141   27.1279 F   0  0  0  0  0  0  0  0  0  0  0  0
  1  4  1  0
  1  6  1  0
  1  8  1  0
  2  8  1  0
  2  9  1  0
  3 13  2  0
  4  9  1  0
  4 10  1  0
  5 11  1  0
  5 13  1  0
  6 11  1  0
  7 22  1  0
  7 23  1  0
  8 12  1  0
  9 14  1  0
 10 13  1  0
 10 15  1  0
 12 17  1  0
 12 18  1  0
 14 16  1  0
 15 16  1  0
 16 24  1  0
 17 20  1  0
 18 21  1  0
 19 20  1  0
 19 21  1  0
 19 22  1  0
M  END
$$$$
