
     RDKit          3D

 34 38  0  0  0  0  0  0  0  0999 V2000
   10.7297   45.3457   65.5672 C   0  0  0  0  0  0  0  0  0  0  0  0
    7.1861   45.3348   64.3288 N   0  0  0  0  0  0  0  0  0  0  0  0
    3.1792   46.3559   64.2194 O   0  0  0  0  0  0  0  0  0  0  0  0
   10.4459   46.2948   64.7558 C   0  0  0  0  0  0  0  0  0  0  0  0
    8.1724   39.8596   58.3193 N   0  0  0  0  0  0  0  0  0  0  0  0
    6.4263   39.7400   57.3309 O   0  0  0  0  0  0  0  0  0  0  0  0
    9.2805   46.2251   64.3594 C   0  0  0  0  0  0  0  0  0  0  0  0
    4.0706   46.5671   65.8188 N   0  0  0  0  0  0  0  0  0  0  0  0
    7.8361   44.4185   62.3645 O   0  0  0  0  0  0  0  0  0  0  0  0
    8.3342   45.4308   64.7574 C   0  0  0  0  0  0  0  0  0  0  0  0
   11.8210   45.3152   65.7803 O   0  0  0  0  0  0  0  0  0  0  0  0
    8.7782   44.7783   65.4579 C   0  0  0  0  0  0  0  0  0  0  0  0
    6.1601   43.4327   61.8487 N   0  0  0  0  0  0  0  0  0  0  0  0
   10.0013   44.6338   65.9279 C   0  0  0  0  0  0  0  0  0  0  0  0
    6.2509   45.8100   64.8778 N   0  0  0  0  0  0  0  0  0  0  0  0
    6.4602   42.5611   60.8233 C   0  0  0  0  0  0  0  0  0  0  0  0
    6.8173   44.2620   62.5676 C   0  0  0  0  0  0  0  0  0  0  0  0
    5.2570   45.7179   64.4500 C   0  0  0  0  0  0  0  0  0  0  0  0
    4.0289   46.2392   64.8155 C   0  0  0  0  0  0  0  0  0  0  0  0
    5.5055   45.0475   63.5008 C   0  0  0  0  0  0  0  0  0  0  0  0
    6.6009   44.8790   63.4809 C   0  0  0  0  0  0  0  0  0  0  0  0
    7.8618   41.9853   58.7627 C   0  0  0  0  0  0  0  0  0  0  0  0
   12.3695   44.5638   66.4314 C   0  0  0  0  0  0  0  0  0  0  0  0
    7.6476   40.6842   59.0318 C   0  0  0  0  0  0  0  0  0  0  0  0
    4.6043   44.5597   62.6099 C   0  0  0  0  0  0  0  0  0  0  0  0
    6.8335   40.2446   60.0937 C   0  0  0  0  0  0  0  0  0  0  0  0
    7.4716   39.4078   57.4310 C   0  0  0  0  0  0  0  0  0  0  0  0
    9.4404   39.4594   58.4328 C   0  0  0  0  0  0  0  0  0  0  0  0
    9.7832   38.3390   57.7825 C   0  0  0  0  0  0  0  0  0  0  0  0
    6.2300   41.2050   61.0290 C   0  0  0  0  0  0  0  0  0  0  0  0
    7.9401   38.4041   56.5392 C   0  0  0  0  0  0  0  0  0  0  0  0
    5.0463   43.3274   62.2253 C   0  0  0  0  0  0  0  0  0  0  0  0
    9.2822   38.3984   56.5027 C   0  0  0  0  0  0  0  0  0  0  0  0
    7.2479   42.9485   59.6690 C   0  0  0  0  0  0  0  0  0  0  0  0
  1  4  2  0
  1 11  1  0
  1 14  1  0
  2 10  1  0
  2 15  1  0
  2 21  1  0
  3 19  2  0
  4  7  1  0
  5 24  1  0
  5 27  1  0
  5 28  1  0
  6 27  2  0
  7 10  2  0
  8 19  1  0
  9 17  2  0
 10 12  1  0
 11 23  1  0
 12 14  2  0
 13 16  1  0
 13 17  1  0
 13 32  1  0
 15 18  2  0
 16 30  1  0
 16 34  2  0
 17 21  1  0
 18 19  1  0
 18 20  1  0
 20 21  2  0
 20 25  1  0
 22 24  2  0
 22 34  1  0
 24 26  1  0
 25 32  1  0
 26 30  2  0
 27 31  1  0
 28 29  1  0
 29 33  1  0
 31 33  1  0
M  END
$$$$
