
     RDKit          3D

 34 38  0  0  0  0  0  0  0  0999 V2000
   10.7540   45.3195   65.5312 C   0  0  0  0  0  0  0  0  0  0  0  0
    7.2126   45.3250   64.3186 N   0  0  0  0  0  0  0  0  0  0  0  0
    3.1860   46.3587   64.2205 O   0  0  0  0  0  0  0  0  0  0  0  0
   10.4536   46.2600   64.7213 C   0  0  0  0  0  0  0  0  0  0  0  0
    8.1632   39.8481   58.2772 N   0  0  0  0  0  0  0  0  0  0  0  0
    6.4381   39.7416   57.3379 O   0  0  0  0  0  0  0  0  0  0  0  0
    9.2931   46.2080   64.3297 C   0  0  0  0  0  0  0  0  0  0  0  0
    4.0662   46.5837   65.7992 N   0  0  0  0  0  0  0  0  0  0  0  0
    7.8518   44.4304   62.3860 O   0  0  0  0  0  0  0  0  0  0  0  0
    8.3585   45.4040   64.7318 C   0  0  0  0  0  0  0  0  0  0  0  0
   11.8157   45.2813   65.7682 O   0  0  0  0  0  0  0  0  0  0  0  0
    8.7792   44.7361   65.4462 C   0  0  0  0  0  0  0  0  0  0  0  0
    6.1528   43.4273   61.8409 N   0  0  0  0  0  0  0  0  0  0  0  0
   10.0068   44.6232   65.9025 C   0  0  0  0  0  0  0  0  0  0  0  0
    6.2835   45.7963   64.8511 N   0  0  0  0  0  0  0  0  0  0  0  0
    6.4302   42.5746   60.8058 C   0  0  0  0  0  0  0  0  0  0  0  0
    6.8310   44.2609   62.5635 C   0  0  0  0  0  0  0  0  0  0  0  0
    5.2702   45.7233   64.4390 C   0  0  0  0  0  0  0  0  0  0  0  0
    4.0507   46.2430   64.8126 C   0  0  0  0  0  0  0  0  0  0  0  0
    5.5224   45.0428   63.4960 C   0  0  0  0  0  0  0  0  0  0  0  0
    6.6320   44.8691   63.4967 C   0  0  0  0  0  0  0  0  0  0  0  0
    7.8478   41.9919   58.7270 C   0  0  0  0  0  0  0  0  0  0  0  0
   12.3536   44.5571   66.4172 C   0  0  0  0  0  0  0  0  0  0  0  0
    7.6261   40.6784   58.9797 C   0  0  0  0  0  0  0  0  0  0  0  0
    4.6230   44.5528   62.6104 C   0  0  0  0  0  0  0  0  0  0  0  0
    6.8008   40.2271   60.0376 C   0  0  0  0  0  0  0  0  0  0  0  0
    7.4722   39.4002   57.4363 C   0  0  0  0  0  0  0  0  0  0  0  0
    9.4381   39.4437   58.3953 C   0  0  0  0  0  0  0  0  0  0  0  0
    9.7720   38.3395   57.8046 C   0  0  0  0  0  0  0  0  0  0  0  0
    6.1923   41.1940   61.0066 C   0  0  0  0  0  0  0  0  0  0  0  0
    7.9412   38.3953   56.5620 C   0  0  0  0  0  0  0  0  0  0  0  0
    5.0617   43.3146   62.2301 C   0  0  0  0  0  0  0  0  0  0  0  0
    9.2736   38.4002   56.5224 C   0  0  0  0  0  0  0  0  0  0  0  0
    7.2243   42.9572   59.6437 C   0  0  0  0  0  0  0  0  0  0  0  0
  1  4  2  0
  1 11  1  0
  1 14  1  0
  2 10  1  0
  2 15  1  0
  2 21  1  0
  3 19  2  0
  4  7  1  0
  5 24  1  0
  5 27  1  0
  5 28  1  0
  6 27  2  0
  7 10  2  0
  8 19  1  0
  9 17  2  0
 10 12  1  0
 11 23  1  0
 12 14  2  0
 13 16  1  0
 13 17  1  0
 13 32  1  0
 15 18  2  0
 16 30  1  0
 16 34  2  0
 17 21  1  0
 18 19  1  0
 18 20  1  0
 20 21  2  0
 20 25  1  0
 22 24  2  0
 22 34  1  0
 24 26  1  0
 25 32  1  0
 26 30  2  0
 27 31  1  0
 28 29  1  0
 29 33  1  0
 31 33  1  0
M  END
$$$$
